Circuit: * C:\Users\horay\Desktop\Jupiter\TCII\TC2\Tareas Semanales\TS5\Draft1.asc

Warning: Multiple definitions of model "aons66402" Type: Vdmos1
WARNING: Less than two connections to node NC_01.  This node is used by R12.
Direct Newton iteration for .op point succeeded.

Date: Sun Aug 21 21:55:02 2022
Total elapsed time: 0.091 seconds.

tnom = 27
temp = 27
method = trap
totiter = 9
traniter = 0
tranpoints = 0
accept = 0
rejected = 0
matrix size = 16
fillins = 6
solver = Normal
Matrix Compiler1:      67 opcodes
Matrix Compiler2: 1.38 KB object code size
