Circuit: * C:\Users\horay\Desktop\Jupiter\TCII\TC2\Tareas Semanales\TS5\Draft1.asc


Date: Mon Jul 04 13:20:26 2022
Total elapsed time: 0.029 seconds.

tnom = 27
temp = 27
method = trap
totiter = 0
traniter = 0
tranpoints = 0
accept = 0
rejected = 0
matrix size = 3
fillins = 1
solver = Normal

