Circuit: * C:\Users\horay\Desktop\Jupiter\TCII\TC2\Tareas Semanales\TS5\TS5-Ej2-a.asc

WARNING: Node N004 is floating.

Ignoring empty pin current: Ix(u1:1)
Ignoring empty pin current: Ix(u1:2)

Date: Wed Jul 06 20:16:27 2022
Total elapsed time: 0.065 seconds.

tnom = 27
temp = 27
method = trap
totiter = 0
traniter = 0
tranpoints = 0
accept = 0
rejected = 0
matrix size = 5
fillins = 1
solver = Normal

